!PBE0 aug-cc-pVTZ-J D3BJ CPCM(water) RIJCOSX Normalprint Printbasis PrintMOs AUTOAUX EPR-II

%maxcore 4000

%pal
nprocs 104
end

%basis
NewGTO P "aug-cc-pVTZ-J" end
NEWGTO S "aug-cc-pVTZ-J" end
end

*xyzfile -2 3 

%EPRNMR
        GTENSOR   TRUE
        NUCLEI    = ALL H,C,N,O,P,S {AISO, ADIP, AORB, fgrad, rho}
END
